*
*
*
*                       LINUX           Sun Nov 30 14:05:20 2025
*
*
*
*  PROGRAM  advgen
*
*  Name           : advgen - Quantus - (64-bit)
*  Version        : 23.1.1-p051
*  Build Date     : Thu Feb 15 21:11:17 PST 2024
*
*  HSPICE LIBRARY
*
* GLOBAL_TEMPERATURE 25
*  OPERATING_TEMPERATURE 25
*  QRC_TECH_DIR /class/ece482/gpdk045_v_6_0/qrc/typical 
*
*!LENGTH_UNITS METERS
*
*
*

*
.SUBCKT half_adder A B Co S VDD VSS
*
*
*  caps2d version: 10
*
*
*       TRANSISTOR CARDS
*
*
MXI1/XI0/MNM1	XI1/XI0/net1	A	XI1/net3	VSS	g45n1svt
+ L=4.5e-08	W=1.2e-07
+ AD=1.92e-14	AS=1.68e-14	PD=5.6e-07	PS=5.2e-07
+ fw=1.2e-07 sa=1.4e-07 sb=5.5e-07 sca=3.69959 scb=0.00013007 scc=4.39142e-09
MXI1/XI0/MNM0	VSS	B	XI1/XI0/net1	VSS	g45n1svt
+ L=4.5e-08	W=1.2e-07
+ AD=1.92e-14	AS=1.92e-14	PD=5.6e-07	PS=5.6e-07
+ fw=1.2e-07 sa=3.45e-07 sb=3.45e-07 sca=3.69959 scb=0.00013007 scc=4.39142e-09
MXI1/XI1/MNM0	Co	XI1/net3	VSS	VSS	g45n1svt
+ L=4.5e-08	W=1.2e-07
+ AD=1.68e-14	AS=1.92e-14	PD=5.2e-07	PS=5.6e-07
+ fw=1.2e-07 sa=5.5e-07 sb=1.4e-07 sca=3.69959 scb=0.00013007 scc=4.39142e-09
MXI0/MNM0	A	net4	S	VSS	g45n1svt	L=4.5e-08
+ W=1.2e-07
+ AD=1.68e-14	AS=1.92e-14	PD=5.2e-07	PS=5.6e-07
+ fw=1.2e-07 sa=1.4e-07 sb=3.45e-07 sca=5.15732 scb=0.00107852 scc=1.63215e-06
MXI0/MNM1	S	A	net4	VSS	g45n1svt	L=4.5e-08
+ W=1.2e-07
+ AD=1.92e-14	AS=1.68e-14	PD=5.6e-07	PS=5.2e-07
+ fw=1.2e-07 sa=3.45e-07 sb=1.4e-07 sca=5.15732 scb=0.00107852 scc=1.63215e-06
MXI0/XI0/MNM0	net4	B	VSS	VSS	g45n1svt	L=4.5e-08
+ W=1.2e-07
+ AD=1.68e-14	AS=1.68e-14	PD=5.2e-07	PS=5.2e-07
+ fw=1.2e-07 sa=1.4e-07 sb=1.4e-07 sca=12.9282 scb=0.0134361 scc=0.000622896
MXI1/XI0/MPM1	XI1/net3	A	VDD	VDD	g45p1svt
+ L=4.5e-08	W=2.4e-07
+ AD=3.84e-14	AS=3.36e-14	PD=8e-07	PS=7.6e-07
+ fw=2.4e-07 sa=1.4e-07 sb=5.5e-07 sca=26.2992 scb=0.0240146 scc=0.00255754
MXI1/XI0/MPM0	XI1/net3	B	VDD	VDD	g45p1svt
+ L=4.5e-08	W=2.4e-07
+ AD=3.84e-14	AS=3.84e-14	PD=8e-07	PS=8e-07
+ fw=2.4e-07 sa=3.45e-07 sb=3.45e-07 sca=28.7383 scb=0.0277231 scc=0.00260208
MXI1/XI1/MPM0	Co	XI1/net3	VDD	VDD	g45p1svt
+ L=4.5e-08	W=2.4e-07
+ AD=3.36e-14	AS=3.84e-14	PD=7.6e-07	PS=8e-07
+ fw=2.4e-07 sa=5.5e-07 sb=1.4e-07 sca=39.2498 scb=0.0428135 scc=0.00408073
MXI0/MPM0	A	B	S	VDD	g45p1svt	L=4.5e-08
+ W=2.4e-07
+ AD=3.36e-14	AS=3.84e-14	PD=7.6e-07	PS=8e-07
+ fw=2.4e-07 sa=1.4e-07 sb=3.45e-07 sca=42.457 scb=0.04208 scc=0.00527302
MXI0/MPM2	S	A	B	VDD	g45p1svt	L=4.5e-08
+ W=2.4e-07
+ AD=3.84e-14	AS=3.36e-14	PD=8e-07	PS=7.6e-07
+ fw=2.4e-07 sa=3.45e-07 sb=1.4e-07 sca=42.457 scb=0.04208 scc=0.00527302
MXI0/XI0/MPM0	net4	B	VDD	VDD	g45p1svt	L=4.5e-08
+ W=2.4e-07
+ AD=3.36e-14	AS=3.36e-14	PD=7.6e-07	PS=7.6e-07
+ fw=2.4e-07 sa=1.4e-07 sb=1.4e-07 sca=36.6317 scb=0.035909 scc=0.00335548
*
*
*       CAPACITOR CARDS
*
*
C1	A	VSS	1.41331e-15	$X=-0.505 $Y=-0.224
C2	B	VSS	1.70602e-15	$X=-0.794 $Y=-0.277
C3	Co	VSS	4.04542e-16	$X=0.7295 $Y=0.908
C4	S	VSS	5.86473e-16	$X=-0.694 $Y=0.827
C5	VDD	VSS	9.018e-16	$X=-0.315 $Y=1.202
C6	net4	VSS	4.74782e-16	$X=-1.0335 $Y=-0.096
C7	XI1/net3	VSS	6.26729e-16	$X=0.237 $Y=0.2405
C8	XI1/XI0/net1	VSS	1.11112e-16	$X=0.2095 $Y=-0.574
*
*
.ENDS half_adder
*
