*
*
*
*                       LINUX           Sat Nov 29 12:46:21 2025
*
*
*
*  PROGRAM  advgen
*
*  Name           : advgen - Quantus - (64-bit)
*  Version        : 23.1.1-p051
*  Build Date     : Thu Feb 15 21:11:17 PST 2024
*
*  HSPICE LIBRARY
*
* GLOBAL_TEMPERATURE 25
*  OPERATING_TEMPERATURE 25
*  QRC_TECH_DIR /class/ece482/gpdk045_v_6_0/qrc/typical 
*
*!LENGTH_UNITS METERS
*
*
*

*
.SUBCKT xor A B B_bar OUT VDD VSS
*
*
*  caps2d version: 10
*
*
*       TRANSISTOR CARDS
*
*
MMNM0	A#8	B_bar#2	OUT#1	VSS	g45n1svt	L=4.5e-08
+ W=1.2e-07
+ AD=1.68e-14	AS=1.92e-14	PD=5.2e-07	PS=5.6e-07
+ fw=1.2e-07 sa=1.4e-07 sb=3.45e-07 sca=5.12155 scb=0.00103813 scc=1.48881e-06
MMNM1	OUT#1	A#3	B_bar#3	VSS	g45n1svt	L=4.5e-08
+ W=1.2e-07
+ AD=1.92e-14	AS=1.68e-14	PD=5.6e-07	PS=5.2e-07
+ fw=1.2e-07 sa=3.45e-07 sb=1.4e-07 sca=5.12155 scb=0.00103813 scc=1.48881e-06
MXI0/MNM0	B_bar#7	B#4	VSS#3	VSS	g45n1svt
+ L=4.5e-08	W=1.2e-07
+ AD=1.68e-14	AS=1.68e-14	PD=5.2e-07	PS=5.2e-07
+ fw=1.2e-07 sa=1.4e-07 sb=1.4e-07 sca=12.3034 scb=0.0125586 scc=0.000527096
MMPM0	A#5	B#6	OUT#2	VDD	g45p1svt	L=4.5e-08
+ W=2.4e-07
+ AD=3.36e-14	AS=3.84e-14	PD=7.6e-07	PS=8e-07
+ fw=2.4e-07 sa=1.4e-07 sb=3.45e-07 sca=48.7608 scb=0.0470044 scc=0.00589085
MMPM2	OUT#2	A#4	B#7	VDD	g45p1svt	L=4.5e-08
+ W=2.4e-07
+ AD=3.84e-14	AS=3.36e-14	PD=8e-07	PS=7.6e-07
+ fw=2.4e-07 sa=3.45e-07 sb=1.4e-07 sca=56.1562 scb=0.0589139 scc=0.00666125
MXI0/MPM0	B_bar#8	B#1	VDD#1	VDD	g45p1svt
+ L=4.5e-08	W=2.4e-07
+ AD=3.36e-14	AS=3.36e-14	PD=7.6e-07	PS=7.6e-07
+ fw=2.4e-07 sa=1.4e-07 sb=1.4e-07 sca=39.9325 scb=0.0377946 scc=0.00385132
*
*
*       RESISTOR AND CAP/DIODE CARDS
*
Rj1	A#10	A	0.679965	$metal2_conn	$W=1e-07
+ $X=0.63 $Y=0.395
Rk1	VDD#1	VDD#3	31.229670	$metal1_conn	$W=9e-08
+ $X=-0.5 $Y=0.525
Rk2	VDD#3	VDD	0.024937	$metal1_conn	$W=1.25e-07
+ $X=-0.5395 $Y=0.695
Rk4	VSS	VSS#2	0.027401	$metal1_conn	$W=1.25e-07
+ $X=-0.458 $Y=-0.545
Rk5	VSS#2	VSS#3	75.186501	$metal1_conn	$W=9e-08
+ $X=-0.5 $Y=-0.375
Rk7	A#5	A#6	31.395449	$metal1_conn	$W=9e-08
+ $X=0.25 $Y=0.6175
Rk8	A#6	A	0.006248	$metal1_conn	$W=4.1e-07
+ $X=0.25 $Y=0.325
Rk10	A#6	A#8	75.370270	$metal1_conn	$W=9e-08
+ $X=0.25 $Y=0.02
Rk11	OUT	OUT#1	75.276093	$metal1_conn	$W=8e-08
+ $X=0.455 $Y=0.0845
Rk12	OUT	OUT#2	31.426054	$metal1_conn	$W=8e-08
+ $X=0.455 $Y=0.479
Rk13	A#1	A#10	15.000000	$metal1_conn	$W=3e-07
+ $X=0.63 $Y=0.325
Rk14	B#7	B	31.432903	$metal1_conn	$W=9e-08
+ $X=0.66 $Y=1.0275
Rk15	B	B#5	0.004857	$metal1_conn	$W=6.5e-08
+ $X=0.425 $Y=1.1965
Rk16	B#5	B#3	24.368269	$metal1_conn	$W=1e-07
+ $X=-0.24 $Y=1.195
Rk18	B_bar#3	B_bar#1	75.454979	$metal1_conn
+ $W=9e-08	$X=0.66 $Y=-0.33
Rk20	B_bar#1	B_bar#6	0.845660	$metal1_conn
+ $W=1e-07	$X=0.205 $Y=-0.595
Rk21	B_bar#6	B_bar#7	75.168396	$metal1_conn
+ $W=9e-08	$X=-0.295 $Y=-0.1175
Rk22	B_bar#1	B_bar	0.038340	$metal1_conn	$W=9.5e-08
+ $X=0.425 $Y=-0.4925
Rk23	B_bar#6	B_bar#8	31.232424	$metal1_conn
+ $W=9e-08	$X=-0.295 $Y=0.1325
Rl1	B#1	B#2	70.033440	$poly_conn	$W=3.9e-08
+ $X=-0.3975 $Y=0.138
Rl2	B#2	B#3	3.118306	$poly_conn	$W=1.14e-07
+ $X=-0.421 $Y=0.01
Rl3	B#2	B#4	66.187286	$poly_conn	$W=3.9e-08
+ $X=-0.3975 $Y=-0.1125
Rl4	B#5	B#6	73.593849	$poly_conn	$W=3.9e-08
+ $X=0.3525 $Y=0.965
Rl5	B_bar#1	B_bar#2	110.132309	$poly_conn
+ $W=3.9e-08	$X=0.3525 $Y=-0.2675
Rl6	A#1	A#2	1.030932	$poly_conn	$W=3.54e-07
+ $X=0.63 $Y=0.325
Rl7	A#2	A#3	130.876129	$poly_conn	$W=3.9e-08
+ $X=0.5575 $Y=0.0475
Rl8	A#2	A#4	121.260742	$poly_conn	$W=3.9e-08
+ $X=0.5575 $Y=0.59
*
*       CAPACITOR CARDS
*
*
C1	A	VSS	1.14153e-16	$X=0.1995 $Y=0.2925
C2	B	VSS	1.17891e-17	$X=0.4225 $Y=1.301
C3	OUT	VSS	9.33342e-17	$X=0.449 $Y=0.275
C4	VDD	VSS	1.20506e-16	$X=-0.1025 $Y=-0.3135
C5	A#4	VSS	4.25745e-17	$X=0.5515 $Y=0.793
C6	B#6	VSS	3.78819e-17	$X=0.3485 $Y=0.762
C7	B#1	VSS	2.83547e-17	$X=-0.3955 $Y=0.336
C8	A#3	VSS	3.88744e-17	$X=0.553 $Y=-0.1125
C9	B_bar#2	VSS	3.45524e-17	$X=0.349 $Y=-0.1105
C10	B#4	VSS	3.0056e-17	$X=-0.396 $Y=-0.254
C11	B#5	VSS	2.01442e-16	$X=0.171 $Y=0.998
C12	B_bar#1	VSS	1.46827e-16	$X=0.3605 $Y=-0.552
C13	B#3	VSS	2.02664e-16	$X=-0.6095 $Y=-0.008
C14	A#10	VSS	1.16268e-16	$X=0.606 $Y=0.304
C15	B#7	VSS	5.82575e-17	$X=0.636 $Y=0.816
C16	OUT#2	VSS	9.48385e-17	$X=0.44 $Y=0.718
C17	A#5	VSS	4.47317e-17	$X=0.247 $Y=0.757
C18	B_bar#8	VSS	4.98164e-17	$X=-0.296 $Y=0.2925
C19	VDD#1	VSS	5.87157e-17	$X=-0.487 $Y=0.33
C20	B_bar#3	VSS	4.71241e-17	$X=0.6425 $Y=-0.174
C21	OUT#1	VSS	5.38067e-17	$X=0.4465 $Y=-0.0795
C22	A#8	VSS	4.02337e-17	$X=0.25 $Y=-0.0955
C23	B_bar#7	VSS	2.4443e-17	$X=-0.298 $Y=-0.222
C24	B_bar#6	VSS	8.23108e-17	$X=-0.154 $Y=-0.007
C25	A#2	VSS	6.13186e-17	$X=0.5405 $Y=0.3025
*
*
.ENDS xor
*
